Version 4
SHEET 1 1768 680
WIRE -192 -1184 -272 -1184
WIRE -80 -1184 -80 -1232
WIRE -80 -1184 -192 -1184
WIRE -192 -1152 -192 -1184
WIRE -272 -1072 -272 -1104
WIRE -192 -1072 -192 -1088
WIRE -192 -1072 -272 -1072
WIRE -80 -1056 -80 -1184
WIRE -112 -1040 -304 -1040
WIRE 32 -1024 -48 -1024
WIRE -272 -1008 -272 -1072
WIRE -144 -1008 -272 -1008
WIRE -112 -1008 -144 -1008
WIRE 32 -992 32 -1024
WIRE -144 -976 -144 -1008
WIRE -80 -896 -80 -992
WIRE -80 -896 -144 -896
WIRE -80 -880 -80 -896
WIRE -304 -848 -304 -1040
WIRE 32 -848 32 -912
WIRE 32 -848 -304 -848
WIRE 640 -784 640 -864
WIRE 720 -784 640 -784
WIRE 880 -784 800 -784
WIRE 32 -736 32 -768
WIRE 272 -736 32 -736
WIRE 640 -720 640 -784
WIRE 32 -624 32 -656
WIRE -304 -560 -304 -848
WIRE 176 -560 -304 -560
WIRE 336 -560 240 -560
WIRE 496 -560 400 -560
WIRE 640 -560 640 -640
WIRE 640 -560 576 -560
WIRE 880 -560 880 -784
WIRE 880 -560 640 -560
WIRE 160 -192 160 -288
WIRE 704 -112 400 -112
WIRE 160 -64 160 -112
WIRE 208 -64 160 -64
WIRE 336 -64 288 -64
WIRE 160 -48 160 -64
WIRE -160 0 -320 0
WIRE 96 0 -80 0
WIRE 704 0 704 -112
WIRE 880 64 880 -560
WIRE -528 112 -528 0
WIRE -320 112 -320 0
WIRE 160 144 160 48
WIRE 704 144 704 80
WIRE 832 144 704 144
WIRE 704 160 704 144
WIRE 400 192 400 -16
WIRE -528 272 -528 192
WIRE -320 272 -320 192
WIRE 704 272 704 240
WIRE 880 272 880 160
WIRE 880 272 704 272
WIRE 704 320 704 272
FLAG -320 272 0
FLAG -528 272 0
FLAG -528 0 VCC
FLAG 160 -288 VCC
FLAG 704 320 0
FLAG 640 -864 VCC
FLAG -80 -1232 VCC
FLAG -80 -880 0
FLAG 32 -624 0
FLAG 272 -736 OUT
IOPIN 272 -736 Out
FLAG 400 192 VCC
FLAG 160 144 0
FLAG -304 -480 0
SYMBOL voltage -320 96 R0
WINDOW 123 0 0 Left 0
WINDOW 39 0 0 Left 0
SYMATTR InstName CLK
SYMATTR Value PULSE(0 3.3 0 1u 1u 2m 4m 1)
SYMBOL res -64 -16 R90
WINDOW 0 0 56 VBottom 2
WINDOW 3 32 56 VTop 2
SYMATTR InstName R1
SYMATTR Value 1k
SYMBOL pnp 336 -112 R0
SYMATTR InstName Q1
SYMATTR Value BC557B
SYMBOL voltage -528 96 R0
WINDOW 123 0 0 Left 0
WINDOW 39 0 0 Left 0
SYMATTR InstName VCC
SYMATTR Value 12
SYMBOL res 688 -16 R0
SYMATTR InstName R2
SYMATTR Value 100
SYMBOL res 688 144 R0
SYMATTR InstName R3
SYMATTR Value 150
SYMBOL nmos 832 64 R0
SYMATTR InstName M1
SYMATTR Value IRF740
SYMBOL ind 704 -768 R270
WINDOW 0 32 56 VTop 2
WINDOW 3 5 56 VBottom 2
SYMATTR InstName L1
SYMATTR Value 300m
SYMBOL res 624 -736 R0
SYMATTR InstName R4
SYMATTR Value 390
SYMBOL res 592 -576 R90
WINDOW 0 0 56 VBottom 2
WINDOW 3 32 56 VTop 2
SYMATTR InstName R5
SYMATTR Value 390
SYMBOL diode 400 -576 R90
WINDOW 0 0 32 VBottom 2
WINDOW 3 32 32 VTop 2
SYMATTR InstName D1
SYMATTR Value 1N4148
SYMBOL cap 240 -576 R90
WINDOW 0 0 32 VBottom 2
WINDOW 3 32 32 VTop 2
SYMATTR InstName C1
SYMATTR Value 10µ
SYMBOL OpAmps\\UniversalOpAmp2 -80 -1024 R0
SYMATTR InstName U1
SYMBOL res -160 -992 R0
SYMATTR InstName R6
SYMATTR Value 62k
SYMBOL res -288 -1200 R0
SYMATTR InstName R7
SYMATTR Value 47k
SYMBOL polcap -208 -1152 R0
SYMATTR InstName C2
SYMATTR Value 1000µ
SYMBOL res 16 -1008 R0
SYMATTR InstName R8
SYMATTR Value 3Meg
SYMBOL res 16 -864 R0
SYMATTR InstName R9
SYMATTR Value 200k
SYMBOL res 16 -752 R0
SYMATTR InstName R10
SYMATTR Value 50k
SYMBOL npn 96 -48 R0
SYMATTR InstName Q2
SYMBOL res 144 -208 R0
SYMATTR InstName R11
SYMATTR Value 6.8k
SYMBOL res 304 -80 R90
WINDOW 0 0 56 VBottom 2
WINDOW 3 32 56 VTop 2
SYMATTR InstName R12
SYMATTR Value 1k
SYMBOL res -320 -576 R0
SYMATTR InstName R13
SYMATTR Value 100k
TEXT -354 296 Left 2 !;tran 1s
TEXT 696 432 Left 2 !.model IRF740 NMOS(Level=3 Gamma=0 Delta=0 Eta=0 Theta=0 Kappa=0.2 Vmax=0 Xj=0\n+ Tox=100n Uo=600 Phi=.6 Rs=8.563m Kp=20.59u W=.78 L=2u Vto=3.657\n+ Rd=.3915 Rds=1.778MEG Cbd=1.419n Pb=.8 Mj=.5 Fc=.5 Cgso=1.392n\n+ Cgdo=146.6p Rg=.9088 Is=17.65p N=1 Tt=570n)\n* IR pid=IRF740 case=TO220
TEXT -536 464 Left 2 !.tran 10m
